       5
 i =        4, E =        -8.0758219476
  C        -0.0000132025        0.0000009401        0.0000222602
  H        -0.0000079140        0.0000007294        1.0973589767
  H         1.0345654641        0.0000007250       -0.3657582405
  H        -0.5172992238       -0.8959706835       -0.3657591088
  H        -0.5172993977        0.8959723812       -0.3657592353
